@<TRIPOS>MOLECULE
./tmp_file/1g5s_ligand.pdb
 61 65 0 0 0
SMALL
GASTEIGER

@<TRIPOS>ATOM
      1  C26       15.2920   -8.9720   14.5730 C.3   400  I17400      0.0373
      2  N9        13.9860   -9.6460   14.3440 N.ar  400  I17400     -0.3118
      3  C4        13.2900   -9.6290   13.1580 C.ar  400  I17400      0.1675
      4  N3        13.6950   -8.9990   12.0310 N.ar  400  I17400     -0.1947
      5  C2        12.8800   -9.1210   11.0260 C.ar  400  I17400      0.2191
      6  C6        11.2420  -10.4870   12.2370 C.ar  400  I17400      0.1519
      7  N1        11.6760   -9.8340   11.0710 N.ar  400  I17400     -0.1974
      8  C5        12.1360  -10.3780   13.3880 C.ar  400  I17400      0.1476
      9  N7        12.0860  -10.8500   14.6690 N.ar  400  I17400     -0.2306
     10  C8        13.2100  -10.4040   15.2430 C.ar  400  I17400      0.0986
     11  N18       10.0010  -11.1980   12.2600 N.pl3 400  I17400     -0.3231
     12  C19        9.1990  -11.2030   11.0400 C.3   400  I17400      0.0357
     13  C25        7.8770  -13.1410   10.9730 C.ar  400  I17400     -0.0571
     14  C24        7.4600  -14.3220   10.3330 C.ar  400  I17400     -0.0615
     15  C23        7.9940  -14.6880    9.1090 C.ar  400  I17400     -0.0617
     16  C22        8.9610  -13.8680    8.5030 C.ar  400  I17400     -0.0615
     17  C21        9.3790  -12.6730    9.1510 C.ar  400  I17400     -0.0571
     18  C20        8.8330  -12.3300   10.3740 C.ar  400  I17400     -0.0304
     19  N10       13.2260   -8.3960    9.7540 N.pl3 400  I17400     -0.3105
     20  C11       14.4790   -7.4500    9.6590 C.3   400  I17400      0.0234
     21  C14       14.9430   -4.6260    8.8490 C.3   400  I17400      0.0050
     22  C15       15.1240   -5.0890   10.2750 C.3   400  I17400     -0.0361
     23  C16       14.2460   -6.3010   10.5880 C.3   400  I17400     -0.0331
     24  C12       14.5380   -7.0420    8.0960 C.3   400  I17400     -0.0331
     25  C13       15.3530   -5.7490    7.9380 C.3   400  I17400     -0.0361
     26  N17       15.8210   -3.4180    8.5840 N.3   400  I17400     -0.3272
     27  C30       16.5920   -8.9840   13.8290 C.3   400  I17400     -0.0320
     28  C29       17.0640   -7.6070   13.7800 C.3   400  I17400     -0.0511
     29  C27       15.1000   -7.4710   14.8510 C.3   400  I17400     -0.0320
     30  C28       16.5040   -6.9930   14.9450 C.3   400  I17400     -0.0511
     31 H          15.4954   -9.7476   15.2815 H     400  I17400      0.0529
     32 H          13.4752  -10.5920   16.2225 H     400  I17400      0.1029
     33 H           9.6981  -11.6677   13.0705 H     400  I17400      0.1479
     34 H           8.2856  -10.7057   11.2917 H     400  I17400      0.0511
     35 H           9.8866  -10.7703   10.3436 H     400  I17400      0.0511
     36 H           7.4737  -12.8774   11.8856 H     400  I17400      0.0621
     37 H           6.7490  -14.9217   10.7801 H     400  I17400      0.0618
     38 H           7.6842  -15.5564    8.6453 H     400  I17400      0.0618
     39 H           9.3662  -14.1319    7.5913 H     400  I17400      0.0618
     40 H          10.0866  -12.0647    8.7103 H     400  I17400      0.0621
     41 H          12.6542   -8.5166    8.9617 H     400  I17400      0.1492
     42 H          15.4151   -7.8783    9.9508 H     400  I17400      0.0498
     43 H          13.9221   -4.3556    8.6772 H     400  I17400      0.0458
     44 H          14.8611   -4.2896   10.9358 H     400  I17400      0.0281
     45 H          16.1470   -5.3731   10.4077 H     400  I17400      0.0281
     46 H          14.4539   -6.6232   11.5869 H     400  I17400      0.0284
     47 H          13.2273   -5.9962   10.4692 H     400  I17400      0.0284
     48 H          15.0035   -7.8280    7.5389 H     400  I17400      0.0284
     49 H          13.5451   -6.8864    7.7289 H     400  I17400      0.0284
     50 H          15.2489   -5.4121    6.9278 H     400  I17400      0.0281
     51 H          16.3604   -5.9957    8.2011 H     400  I17400      0.0281
     52 H          16.7973   -3.6654    8.7451 H     400  I17400      0.1185
     53 H          15.5544   -2.6596    9.2118 H     400  I17400      0.1185
     54 H          17.3030   -9.5987   14.3404 H     400  I17400      0.0285
     55 H          16.4656   -9.3809   12.8434 H     400  I17400      0.0285
     56 H          16.7174   -7.1200   12.8925 H     400  I17400      0.0266
     57 H          18.1320   -7.5441   13.7612 H     400  I17400      0.0266
     58 H          14.5720   -7.3096   15.7676 H     400  I17400      0.0285
     59 H          14.5205   -6.9649   14.1074 H     400  I17400      0.0285
     60 H          16.5625   -5.9257   14.8965 H     400  I17400      0.0266
     61 H          16.9992   -7.2380   15.8613 H     400  I17400      0.0266
@<TRIPOS>BOND
     1    25    24    1
     2    25    21    1
     3    24    20    1
     4    16    15   ar
     5    16    17   ar
     6    26    21    1
     7    21    22    1
     8    15    14   ar
     9    17    18   ar
    10    20    19    1
    11    20    23    1
    12    19     5    1
    13    22    23    1
    14    14    13   ar
    15    18    13   ar
    16    18    12    1
    17     5     7   ar
    18     5     4   ar
    19    12    11    1
    20     7     6   ar
    21     4     3   ar
    22     6    11    1
    23     6     8   ar
    24     3     8   ar
    25     3     2   ar
    26     8     9   ar
    27    28    27    1
    28    28    30    1
    29    27     1    1
    30     2     1    1
    31     2    10   ar
    32     1    29    1
    33     9    10   ar
    34    29    30    1
    35     1    31    1
    36    10    32    1
    37    11    33    1
    38    12    34    1
    39    12    35    1
    40    13    36    1
    41    14    37    1
    42    15    38    1
    43    16    39    1
    44    17    40    1
    45    19    41    1
    46    20    42    1
    47    21    43    1
    48    22    44    1
    49    22    45    1
    50    23    46    1
    51    23    47    1
    52    24    48    1
    53    24    49    1
    54    25    50    1
    55    25    51    1
    56    26    52    1
    57    26    53    1
    58    27    54    1
    59    27    55    1
    60    28    56    1
    61    28    57    1
    62    29    58    1
    63    29    59    1
    64    30    60    1
    65    30    61    1
